Hi! I'm Bob. I'm new here.
New line.
This is the new line for testing the divergent barnaches.
