Hi! I'm Bob. I'm new here.
New line.
New line for testing the divergent barnaches.
